[General]
network = FrequencyNetwork
image-path=../../images
tkenv-plugin-path = ../../../inet/etc/plugins
output-scalar-file-append = false
debug-on-errors = false
tkenv-default-config = 
sim-time-limit=3s
warmup-period=0s
repeat = 1
**.routingRecorder.enabled = false
output-scalar-file = ${resultdir}/${configname}/${repetition}.sca
output-vector-file = ${resultdir}/${configname}/${repetition}.vec
seed-set = ${repetition}
**.vector-recording = false
**.channelControl.pMax = 10W
**.channelControl.alpha = 1.0
**.channelControl.carrierFrequency = 2100e+6Hz
**.lteNic.phy.channelModel=xmldoc("config_channel.xml")
**.feedbackComputation = xmldoc("config_channel.xml")
**.mobility.constraintAreaMinZ = 0m
**.mobility.constraintAreaMaxZ = 0m
**.fbDelay = 1
**.rbAllocationType = "localized"
**.deployer.numRbDl = 6
**.deployer.numRbUl = 6
**.numBands = 6

*.ue*[*].macCellId = 1
*.ue*[*].masterId = 1
*.ue*[*].mobility.initFromDisplayString = false
*.eNodeB.d2dCapable = true
*.ueD2D*[*].d2dCapable = true
*.ueCell*[*].d2dCapable = false
**.amcMode = "D2D"

*.numUeD2DTx_FULBUF = 1
*.numUeD2DRx_FULBUF = 1
*.numUeCellTx_FULBUF = 1
*.numUeCellRx_FULBUF = 1
*.ue*_FULBUF[*].numUdpApps = 1
**.ue*Tx_FULBUF[*].udpApp[0].typename = "UDPBasicApp"
**.ueD2DTx_FULBUF[*].udpApp[0].destAddresses = "ueD2DRx_FULBUF[" + string(ancestorIndex(1)) + "]"
**.ueCellTx_FULBUF[*].udpApp[0].destAddresses = "ueCellRx_FULBUF[" + string(ancestorIndex(1)) + "]"
**.ue*Tx_FULBUF[*].udpApp[0].destPort = 1000
**.ue*Tx_FULBUF[*].udpApp[0].sendInterval = 0.0005s # 2 packets per TTI = full buffer
**.ue*Tx_FULBUF[*].udpApp[0].messageLength = 50B  # <576B from RFC1122
**.ue*Rx_FULBUF[*].udpApp[0].typename = "UDPSink"
**.ue*Rx_FULBUF[*].udpApp[0].localPort = 1000

*.eNodeB.mobility.initialX = 300m
*.eNodeB.mobility.initialY = 300m

*.ue*[*].mobility.initialX = uniform(290m,310m) # max 22,360679775m distance
*.ue*[*].mobility.initialY = uniform(340m,350m)
**.schedulingDisciplineUl = "NAIVE_ROUND_ROBIN_REUSE"
**.schedulingDisciplineDl = "NAIVE_ROUND_ROBIN"