[General]
image-path=../../images
tkenv-plugin-path = ../../../inet/etc/plugins
output-scalar-file-append = false
debug-on-errors = false
tkenv-default-config = 
sim-time-limit=5s
warmup-period=0s
repeat = 3
**.routingRecorder.enabled = false


############### Statistics ##################
output-scalar-file = ${resultdir}/${configname}/${repetition}.sca
output-vector-file = ${resultdir}/${configname}/${repetition}.vec
seed-set = ${repetition}
**.vector-recording = true

################ Channel parameters #####################
**.channelControl.pMax = 10W
**.channelControl.alpha = 1.0
**.channelControl.carrierFrequency = 2100e+6Hz

################ PhyLayer parameters #####################
**.lteNic.phy.channelModel=xmldoc("config_channel.xml")
**.feedbackComputation = xmldoc("config_channel.xml")

################ Mobility parameters #####################
**.mobility.constraintAreaMinZ = 0m
**.mobility.constraintAreaMaxZ = 0m

################# Deployer parameters #######################
# UEs attached to eNB
**.fbDelay = 1

############### AMC MODULE PARAMETERS ###############
**.rbAllocationType = "localized"
**.deployer.numRbDl = 50
**.deployer.numRbUl = 50
**.numBands = 50


# ----------------------------------------------------------------------------- #
# Config "MultiplePairs"
#
# Do NOT run this config! It serves as base configuration for "MultiplePairs-D2D" and "MultiplePairs-Infra" configurations (see below).
# It includes N pairs of UEs served by one eNodeB. UEs are far from the eNB (~50m), but close to each other (20m)  
#
[Config Base]
network=FrequencyNetwork

### eNodeBs configuration ###
*.eNodeB.mobility.initFromDisplayString = false
*.eNodeB.mobility.initialX = 300m
*.eNodeB.mobility.initialY = 300m

### UEs configuration ###
*.numUeCell = 0
*.numUeD2DTx = 5#${numPairs=5,20,50}
*.numUeD2DRx = 5#${numPairs}

*.ue*[*].macCellId = 1
*.ue*[*].masterId = 1
*.ue*[*].mobility.initFromDisplayString = false

# Place D2D endpoints far from the eNodeB (~50m) and close to each other
*.ueD2D*[*].mobility.initialX = uniform(290m,310m)
*.ueD2D*[*].mobility.initialY = uniform(340m,350m)


# ----------------------------------------------------------------------------- #
# Config "MultiplePairs-UDP-Infra"
#
# In this configuration, UEs run a VoIP application (using UDP as transport layer protocol)
# They communicate using the traditional infrastructure mode (two-hop path through the eNodeB)
#
[Config SanityCheck]
extends=Base

### Traffic configuration ###
*.ueD2D*[*].numUdpApps = 1

# Traffic.
**.ueCell[*].udpApp[0].typename = "UDPBasicApp"
**.ueCell[*].udpApp[0].destAddresses = "ueCellRx[" + string(ancestorIndex(1)) + "]"
**.ueCell[*].udpApp[0].destPort = 1000
**.ueCell[*].udpApp[0].sendInterval = 0.00025s # 0.25ms
**.ueCell[*].udpApp[0].messageLength = 65.507B

**.ueD2DTx[*].udpApp[0].typename = "UDPBasicApp"
**.ueD2DTx[*].udpApp[*].destAddresses = "ueD2DRx[" + string(ancestorIndex(1)) + "]"
**.ueD2DTx[*].lteNic.d2dPeerAddresses = "ueD2DRx[" + string(ancestorIndex(1)) + "]"
**.ueD2DTx[*].udpApp[0].destPort = 1000
**.ueD2DTx[*].udpApp[0].sendInterval = 0.00025s # 0.25ms
**.ueD2DTx[*].udpApp[0].messageLength = 65.507B

**.ueD2DRx[*].udpApp[0].typename = "UDPSink"
**.ueD2DRx[*].udpApp[0].localPort = 1000

**.ueCellRx[*].udpApp[0].typename = "UDPSink"
**.ueCellRx[*].udpApp[0].localPort = 1000

# Enable D2D for the eNodeB and the UEs involved in direct communications.
*.eNodeB.d2dCapable = true
*.ueD2D*[0].d2dCapable = true
**.amcMode = "D2D"

*.eNodeB.lteNic.phy.enableD2DCqiReporting = true
**.usePreconfiguredTxParams = false
**.d2dCqi = 7