[General]
image-path=../../images
tkenv-plugin-path = ../../../inet/etc/plugins
output-scalar-file-append = false
debug-on-errors = false
tkenv-default-config =
warmup-period=0s
sim-time-limit=3s
repeat = 1
**.routingRecorder.enabled = false
cmdenv-stop-batch-on-error = true

### Statistics.
output-scalar-file = ${resultdir}/${configname}/rep${repetition}.sca
output-vector-file = ${resultdir}/${configname}/rep${repetition}.vec
**.vector-recording = true
seed-set = ${repetition}

################ Channel parameters #####################
**.channelControl.pMax = 10W
**.channelControl.alpha = 1.0
**.channelControl.carrierFrequency = 2100e+6Hz

################ PhyLayer parameters #####################
**.lteNic.phy.channelModel=xmldoc("config_channel_fspl.xml")
**.feedbackComputation = xmldoc("config_channel_fspl.xml")

################ Mobility parameters #####################
**.mobility.constraintAreaMinZ = 0m
**.mobility.constraintAreaMaxZ = 0m

################# Deployer parameters #######################
# UEs attached to eNB
**.fbDelay = 1

############### AMC MODULE PARAMETERS ###############
**.rbAllocationType = "localized"

### BASE CONFIGURATION ###
[Config Base]
network=FrequencyNetwork

**.deployer.numRbDl = 6
**.deployer.numRbUl = 6
**.numBands = 6

### Number of UEs.
*.numUeCellTx_FTP = 0
*.numUeCellRx_FTP = 0
*.numUeCellTx_VoIP = 0
*.numUeCellRx_VoIP = 0
*.numUeCellTx_vid = 0
*.numUeCellRx_vid = 0
*.numUeCellTx_CBR = 0
*.numUeCellRx_CBR = 0
*.numUeCellTx_FULBUF = 0
*.numUeCellRx_FULBUF = 0

*.numUeD2DTx_FTP = 0
*.numUeD2DRx_FTP = 0
*.numUeD2DTx_VoIP = 0
*.numUeD2DRx_VoIP = 0
*.numUeD2DTx_vid = 0
*.numUeD2DRx_vid = 0
*.numUeD2DTx_CBR = 0
*.numUeD2DRx_CBR = 0
*.numUeD2DTx_FULBUF = 0
*.numUeD2DRx_FULBUF = 0

### Transmission power.
**.ue*[*].nic.phy.ueTxPower = 26 # dBm
**.ue*[*].nic.phy.d2dTxPower = 26 # dBm
**.eNodeBTxPower = 46 # dBm

### Positioning.
*.eNodeB.mobility.initialX = 300m
*.eNodeB.mobility.initialY = 300m
*.ueD2D*[*].mobility.initialX = uniform(265m,295m) 
*.ueD2D*[*].mobility.initialY = uniform(305m,340m) # d <= 46,1m
*.ueCell*[*].mobility.initialX = uniform(150m,250m)
*.ueCell*[*].mobility.initialY = uniform(400m,500m)

### Default scheduling discipline.
**.schedulingDisciplineUl = "NAIVE_ROUND_ROBIN"
**.schedulingDisciplineDl = "NAIVE_ROUND_ROBIN"

### eNodeB configuration.
*.eNodeB.mobility.initFromDisplayString = false

### UE configuration.
*.ue*[*].macCellId = 1
*.ue*[*].masterId = 1
*.ue*[*].mobility.initFromDisplayString = false

### Enable D2D for the eNodeB and the UEs involved in direct communications.
*.eNodeB.d2dCapable = true
*.ueD2D*[*].d2dCapable = true
*.ueCell*[*].d2dCapable = false
**.amcMode = "D2D"

*.eNodeB.lteNic.phy.enableD2DCqiReporting = true
**.usePreconfiguredTxParams = false
#**.d2dCqi = 7

*.ue*_VoIP[*].numUdpApps = 1
*.ue*_vid[*].numUdpApps = 1
*.ue*_CBR[*].numUdpApps = 1
*.ue*_FULBUF[*].numUdpApps = 1
*.ue*_FTP[*].numTcpApps = 1

# FTP senders.
**.ue*Tx_FTP[*].tcpApp[*].typename = "TCPSessionApp"
**.ue*Tx_FTP[*].tcpApp[0].connectPort = 1000
**.ue*Tx_FTP[*].tcpApp[*].localPort = 1000
**.ue*Tx_FTP[*].tcpApp[*].sendBytes = 1GiB
**.ue*Tx_FTP[*].tcpApp[0].active = true
**.ue*Tx_FTP[*].tcpApp[0].tOpen = 0.01s 
**.ue*Tx_FTP[*].tcpApp[0].tSend = 1ms 
**.ueCellTx_FTP[*].tcpApp[0].connectAddress = "ueCellRx_FTP[" + string(ancestorIndex(1)) + "]"
**.ueCellTx_FTP[*].tcpApp[0].localAddress = "ueCellRx_FTP[" + string(ancestorIndex(1)) + "]"
**.ueD2DTx_FTP[*].tcpApp[0].connectAddress = "ueD2DRx_FTP[" + string(ancestorIndex(1)) + "]"
**.ueD2DTx_FTP[*].tcpApp[0].localAddress = "ueD2DRx_FTP[" + string(ancestorIndex(1)) + "]"
# FTP receivers
**.ue*Rx_FTP[*].tcpApp[0].typename = "TCPSinkApp"
**.ue*Rx_FTP[*].tcpApp[0].localPort = 1000

# CBR Senders
**.ue*Tx_CBR[*].udpApp[0].typename = "UDPBasicApp"
**.ueCellTx_CBR[*].udpApp[0].destAddresses = "ueCellRx_CBR[" + string(ancestorIndex(1)) + "]"
**.ueD2DTx_CBR[*].udpApp[0].destAddresses = "ueD2DRx_CBR[" + string(ancestorIndex(1)) + "]"
**.ue*Tx_CBR[*].udpApp[0].destPort = 1000
**.ue*Tx_CBR[*].udpApp[0].sendInterval = 0.05s
**.ue*Tx_CBR[*].udpApp[0].messageLength = 1000B # 1kB every 50ms = 160kbps
## CBR receivers.
**.ueD2DRx_CBR[*].udpApp[0].typename = "UDPSink"
**.ueD2DRx_CBR[*].udpApp[0].localPort = 1000

# VoIP senders.
*.ue*Tx_VoIP[*].udpApp[0].typename = "VoIPSender"
*.ue*Tx_VoIP[*].udpApp[0].localPort = 3088 
*.ue*Tx_VoIP[*].udpApp[0].startTime = uniform(0s,0.02s)
*.ueD2DTx_VoIP[*].udpApp[0].destAddress = "ueD2DRx_VoIP[" + string(ancestorIndex(1)) + "]"
*.ueCellTx_VoIP[*].udpApp[0].destAddress = "ueCellRx_VoIP[" + string(ancestorIndex(1)) + "]"
*.ue*Tx_VoIP[*].udpApp[0].destPort = 3000
# VoIP receivers.
*.ue*Rx_VoIP[*].udpApp[*].typename = "VoIPReceiver"
*.ue*Rx_VoIP[*].udpApp[*].localPort = 3000


# Video senders/servers.
**.ue*Tx_vid[*].udpApp[*].typename = "UDPVideoStreamSvr"
**.ue*Tx_vid[*].udpApp[*].videoSize = 1GiB
**.ue*Tx_vid[*].udpApp[*].localPort = 3088
**.ue*Tx_vid[*].udpApp[*].sendInterval = 10ms
**.ue*Tx_vid[*].udpApp[*].packetLen = 3750B # 3750B/10ms = 375000B/s = 3000kbps (720p video)
# Video receivers/clients.
**.ue*Rx_vid[*].udpApp[0].typename = "UDPVideoStreamCli"
**.ueD2DRx_vid[*].udpApp[0].serverAddress = "ueD2DTx_vid[" + string(ancestorIndex(1)) + "]"
**.ueCellRx_vid[*].udpApp[0].serverAddress = "ueCellTx_vid[" + string(ancestorIndex(1)) + "]"
**.ue*Rx_vid[*].udpApp[0].localPort = 9999
**.ue*Rx_vid[*].udpApp[0].serverPort = 3088
**.ue*Rx_vid[*].udpApp[0].startTime = 0s

## Full Buffer senders.
**.ue*Tx_FULBUF[*].udpApp[0].typename = "UDPBasicApp"
**.ueCellTx_FULBUF[*].udpApp[0].destAddresses = "ueCellRx_FULBUF[" + string(ancestorIndex(1)) + "]"
**.ueD2DTx_FULBUF[*].udpApp[0].destAddresses = "ueD2DRx_FULBUF[" + string(ancestorIndex(1)) + "]"
**.ue*Tx_FULBUF[*].udpApp[0].destPort = 1000
**.ue*Tx_FULBUF[*].udpApp[0].sendInterval = 0.0001s # 10 packets per TTI = full buffer
**.ue*Tx_FULBUF[*].udpApp[0].messageLength = 50B  
## Full Buffer receivers.
**.ue*Rx_FULBUF[*].udpApp[0].typename = "UDPSink"
**.ue*Rx_FULBUF[*].udpApp[0].localPort = 1000


[Config tuGameTest]
extends = Base

*.numUeCellTx_FTP = 10
*.numUeCellRx_FTP = 10
*.numUeCellTx_VoIP = 15
*.numUeCellRx_VoIP = 15
*.numUeCellTx_vid = 0
*.numUeCellRx_vid = 0

*.numUeD2DTx_FTP = 10
*.numUeD2DRx_FTP = 10
*.numUeD2DTx_VoIP = 15
*.numUeD2DRx_VoIP = 15
*.numUeD2DTx_vid = 0
*.numUeD2DRx_vid = 0

**.numBands = ${numRBs = 6}
**.deployer.numRbDl = ${numRBs}
**.deployer.numRbUl = ${numRBs}


**.schedulingDisciplineUl = "TU_GAME"
**.schedulingDisciplineDl = "TU_GAME"

#*.eNodeB.mobility.initialX = 300m
#*.eNodeB.mobility.initialY = 300m
#*.ueD2DRx*[*].mobility.initialX = 350m
#*.ueD2DRx*[*].mobility.initialY = 300m
#*.ueD2DTx*[*].mobility.initialX = 340m # 10m away
#*.ueD2DTx*[*].mobility.initialY = 300m
#*.ueCell*[*].mobility.initialX = 250m # 50m from eNB
#*.ueCell*[*].mobility.initialY = 300m


[Config tuGameTestComparisonRR]
extends = tuGameTest
**.schedulingDisciplineUl = "NAIVE_ROUND_ROBIN"
**.schedulingDisciplineDl = "NAIVE_ROUND_ROBIN"


[Config tuGameTestComparisonPF]
extends = tuGameTest
**.schedulingDisciplineUl = "PF"
**.schedulingDisciplineDl = "PF"


[Config parameterStudy-p]
extends = Base

sim-time-limit=10s
repeat = 1

*.numUeCellTx_FTP = 1
*.numUeCellRx_FTP = 1
*.numUeCellTx_VoIP = 1
*.numUeCellRx_VoIP = 1
*.numUeCellTx_vid = 1
*.numUeCellRx_vid = 1
*.numUeCellTx_CBR = 1
*.numUeCellRx_CBR = 1
*.numUeCellTx_FULBUF = 1
*.numUeCellRx_FULBUF = 1

*.numUeD2DTx_FTP = 1
*.numUeD2DRx_FTP = 1
*.numUeD2DTx_VoIP = 1
*.numUeD2DRx_VoIP = 1
*.numUeD2DTx_vid = 1
*.numUeD2DRx_vid = 1
*.numUeD2DTx_CBR = 1
*.numUeD2DRx_CBR = 1
*.numUeD2DTx_FULBUF = 1
*.numUeD2DRx_FULBUF = 1

*.ueCellTx_FTP[0].mobility.initialX = 275m
*.ueCellTx_FTP[0].mobility.initialY = 275m
*.ueCellRx_FTP[0].mobility.initialX = 325m 
*.ueCellRx_FTP[0].mobility.initialY = 325m

*.ueCellTx_FTP[1].mobility.initialX = 275m
*.ueCellTx_FTP[1].mobility.initialY = 285m
*.ueCellRx_FTP[1].mobility.initialX = 325m
*.ueCellRx_FTP[1].mobility.initialY = 335m

*.ueCellTx_FTP[2].mobility.initialX = 275m
*.ueCellTx_FTP[2].mobility.initialY = 295m
*.ueCellRx_FTP[2].mobility.initialX = 325m
*.ueCellRx_FTP[2].mobility.initialY = 345m

*.ueCellTx_FTP[3].mobility.initialX = 275m
*.ueCellTx_FTP[3].mobility.initialY = 265m
*.ueCellRx_FTP[3].mobility.initialX = 325m
*.ueCellRx_FTP[3].mobility.initialY = 315m

*.ueCellTx_FTP[4].mobility.initialX = 275m
*.ueCellTx_FTP[4].mobility.initialY = 255m
*.ueCellRx_FTP[4].mobility.initialX = 325m
*.ueCellRx_FTP[4].mobility.initialY = 305m


*.ueD2DTx_FTP[0].mobility.initialX = 200m
*.ueD2DTx_FTP[0].mobility.initialY = 275m
*.ueD2DRx_FTP[0].mobility.initialX = 220m 
*.ueD2DRx_FTP[0].mobility.initialY = 275m

*.ueD2DTx_FTP[1].mobility.initialX = 210m
*.ueD2DTx_FTP[1].mobility.initialY = 265m
*.ueD2DRx_FTP[1].mobility.initialX = 235m 
*.ueD2DRx_FTP[1].mobility.initialY = 265m

*.ueD2DTx_FTP[2].mobility.initialX = 220m
*.ueD2DTx_FTP[2].mobility.initialY = 255m
*.ueD2DRx_FTP[2].mobility.initialX = 250m 
*.ueD2DRx_FTP[2].mobility.initialY = 255m

*.ueD2DTx_FTP[3].mobility.initialX = 230m
*.ueD2DTx_FTP[3].mobility.initialY = 245m
*.ueD2DRx_FTP[3].mobility.initialX = 265m 
*.ueD2DRx_FTP[3].mobility.initialY = 245m

*.ueD2DTx_FTP[4].mobility.initialX = 240m
*.ueD2DTx_FTP[4].mobility.initialY = 235m
*.ueD2DRx_FTP[4].mobility.initialX = 280m 
*.ueD2DRx_FTP[4].mobility.initialY = 235m

**.schedulingDisciplineUl = "TU_GAME"
**.schedulingDisciplineDl = "TU_GAME"

*.oracle.d2dPenalty = ${p=0..1 step 0.1}

output-scalar-file = ${resultdir}/${configname}/p${p}_rep${repetition}.sca
output-vector-file = ${resultdir}/${configname}/p${p}_rep${repetition}.vec


[Config d2dVsCell]
extends = Base
*.numUeCellTx_FTP = 1
*.numUeCellRx_FTP = 1
*.numUeD2DTx_FTP = 1
*.numUeD2DRx_FTP = 1

*.eNodeB.mobility.initialX = 300m
*.eNodeB.mobility.initialY = 300m

*.ueD2DTx_FTP[0].mobility.initialX = 350m
*.ueD2DTx_FTP[0].mobility.initialY = 350m
*.ueD2DRx_FTP[0].mobility.initialX = 350m + ${d=10..50 step 10}m 
*.ueD2DRx_FTP[0].mobility.initialY = 350m

*.ueCellTx_FTP[0].mobility.initialX = 300m - ${d}m
*.ueCellTx_FTP[0].mobility.initialY = 300m
*.ueCellRx_FTP[0].mobility.initialX = 310m
*.ueCellRx_FTP[0].mobility.initialY = 300m

**.vector-recording = false
output-scalar-file = ${resultdir}/${configname}/d${d}_rep${repetition}.sca

**.schedulingDisciplineUl = "TU_GAME"
**.schedulingDisciplineDl = "TU_GAME"

[Config d2dVsCellPF]
extends = d2dVsCell
**.schedulingDisciplineUl = "PROPFAIR"
**.schedulingDisciplineDl = "PROPFAIR"


[Config D2D-VOIP-TU]
extends=Base
*.numUeD2DTx_VoIP = ${n=8..20 step 4}
*.numUeD2DRx_VoIP = ${n}
**.vector-recording = false
output-scalar-file = ${resultdir}/${configname}/n${n}_rep${repetition}.sca
*.ueD2D*[*].mobility.initialX = uniform(265m,295m) 
*.ueD2D*[*].mobility.initialY = uniform(305m,340m) # d <= 46,1m
sim-time-limit=15s
repeat = 30
**.numBands = ${numRBs = 6}
**.deployer.numRbDl = ${numRBs}
**.deployer.numRbUl = ${numRBs}
**.schedulingDisciplineUl = "TU_GAME"
**.schedulingDisciplineDl = "NAIVE_ROUND_ROBIN"

[Config D2D-VOIP-RR]
extends=D2D-VOIP-TU
**.schedulingDisciplineUl = "NAIVE_ROUND_ROBIN"

[Config D2D-VOIP-PF]
extends=D2D-VOIP-TU
**.schedulingDisciplineUl = "PROPFAIR"


[Config TUGAME-VoIP-D2D_only]
extends=Base
*.numUeD2DTx_VoIP = 1
*.numUeD2DRx_VoIP = 1
*.numUeD2DTx_CBR = ${numFB=5..15 step 5}
*.numUeD2DRx_CBR = ${numFB}
*.ueD2D*[*].mobility.initialX = uniform(265m,295m) 
*.ueD2D*[*].mobility.initialY = uniform(305m,340m) # d <= 46,1m
sim-time-limit=15s
repeat = 10
**.numBands = ${numRBs = 6}
**.deployer.numRbDl = ${numRBs}
**.deployer.numRbUl = ${numRBs}
**.schedulingDisciplineUl = "TU_GAME"
**.schedulingDisciplineDl = "TU_GAME"
**.vector-recording = false
output-scalar-file = ${resultdir}/${configname}/n${numFB}_rep${repetition}.sca

[Config TUGAME-VoIP-D2D_only-PF]
extends=TUGAME-VoIP-D2D_only
**.schedulingDisciplineUl = "PROPFAIR"
**.schedulingDisciplineDl = "PROPFAIR"

[Config TUGAME-VoIP-D2D_only-RR]
extends=TUGAME-VoIP-D2D_only
**.schedulingDisciplineUl = "NAIVE_ROUND_ROBIN"
**.schedulingDisciplineDl = "NAIVE_ROUND_ROBIN"


[Config stackelcompare_base]
extends = Base
sim-time-limit=15s
repeat = 30
*.eNodeB.mobility.initialX = 345m
*.eNodeB.mobility.initialY = 390m
*.ue*[*].mobility.initialX = uniform(275m,290m) 
*.ue*[*].mobility.initialY = uniform(305m,330m) # d_d2d <= 29.15m
**.numBands = ${numRBs = 6}
**.deployer.numRbDl = ${numRBs}
**.deployer.numRbUl = ${numRBs}
**.vector-recording = false
**.oracle.stackelberg_delta = 0.0

**.schedulingDisciplineUl = "TU_GAME"
**.schedulingDisciplineDl = "NAIVE_ROUND_ROBIN"

[Config stackelcompare_tu_noreuse]
extends = stackelcompare_base
*.numUeD2DTx_VoIP = ${n=6..12 step 2}
*.numUeD2DRx_VoIP = ${n}
*.numUeCellTx_VoIP = ${n}
*.numUeCellRx_VoIP = ${n}
output-scalar-file = ${resultdir}/${configname}/n${n}_rep${repetition}.sca

[Config stackelcompare_tu_random]
extends = stackelcompare_tu_noreuse

**.schedulingDisciplineUl = "STACKELBERG_GAME"
**.oracle.stackelberg_scheduleLeaders = "TU"
**.oracle.stackelberg_scheduleFollowers = "RAND"

[Config stackelcompare_tu_sta]
extends = stackelcompare_tu_noreuse

**.schedulingDisciplineUl = "STACKELBERG_GAME"
**.oracle.stackelberg_scheduleLeaders = "TU"
**.oracle.stackelberg_scheduleFollowers = "STA"

[Config stackelcompare_tu_sta_tx]
extends = stackelcompare_tu_sta
**.oracle.stackelberg_setTxPower = true

[Config stackelcompare_tu_modded]
extends = stackelcompare_tu_sta_tx
**.schedulingDisciplineUl = "MODDED_STACKELBERG_GAME"

[Config paper_voip_sta]
extends = Base
sim-time-limit=15s
repeat = 30
*.numUeD2DTx_VoIP = ${n=8..20 step 4}
*.numUeD2DRx_VoIP = ${n}
*.numUeCellTx_VoIP = 0
*.numUeCellRx_VoIP = 0
*.eNodeB.mobility.initialX = 345m
*.eNodeB.mobility.initialY = 390m
*.ue*[*].mobility.initialX = uniform(275m,290m) 
*.ue*[*].mobility.initialY = uniform(305m,330m) # d_d2d <= 50m
**.numBands = ${numRBs = 6}
**.deployer.numRbDl = ${numRBs}
**.deployer.numRbUl = ${numRBs}
**.vector-recording = false
output-scalar-file = ${resultdir}/${configname}/n${n}_rep${repetition}.sca

**.schedulingDisciplineUl = "MODDED_STACKELBERG_GAME"
**.schedulingDisciplineDl = "NAIVE_ROUND_ROBIN"

[Config paper_voip_pf]
extends = paper_voip_sta
**.schedulingDisciplineUl = "PROPFAIR"

[Config paper_voip_rr]
extends = paper_voip_sta
**.schedulingDisciplineUl = "NAIVE_ROUND_ROBIN"


[Config stackelcompare_tu_modded_p_study]
extends = stackelcompare_base
**.schedulingDisciplineUl = "MODDED_STACKELBERG_GAME"
repeat = 5
*.oracle.d2dPenalty = ${p=0..1 step 0.1}
*.numUeD2DTx_VoIP = 10
*.numUeD2DRx_VoIP = 10
*.numUeCellTx_VoIP = 10
*.numUeCellRx_VoIP = 10
output-scalar-file = ${resultdir}/${configname}/n10_p${p}_rep${repetition}.sca

[Config stackelcompare_tu_modded_p_study_2]
extends = stackelcompare_tu_modded
repeat = 15
*.oracle.d2dPenalty = ${p=0..1 step 0.25}
output-scalar-file = ${resultdir}/${configname}/n${n}_p${p}_rep${repetition}.sca


#[Config stackelcompare_modded_sta]
#extends = stackelcompare_rr_sta
#**.schedulingDisciplineUl = "MODDED_STACKELBERG_GAME"


[Config throughput_d2d_cell]
extends = Base
*.numUeD2DTx_FULBUF = 1
*.numUeD2DRx_FULBUF = 1
*.numUeCellTx_FULBUF = 1
*.numUeCellRx_FULBUF = 1
sim-time-limit=5s
repeat = 30

*.eNodeB.mobility.initialX = 300m
*.eNodeB.mobility.initialY = 300m

*.ueD2DTx_FULBUF[0].mobility.initialX = 400m
*.ueD2DTx_FULBUF[0].mobility.initialY = 400m
*.ueD2DRx_FULBUF[0].mobility.initialX = 425m  
*.ueD2DRx_FULBUF[0].mobility.initialY = 400m

*.ueCellTx_FULBUF[0].mobility.initialX = 275m
*.ueCellTx_FULBUF[0].mobility.initialY = 300m
*.ueCellRx_FULBUF[0].mobility.initialX = 325m  
*.ueCellRx_FULBUF[0].mobility.initialY = 300m

**.schedulingDisciplineUl = "NAIVE_ROUND_ROBIN"
**.schedulingDisciplineDl = "NAIVE_ROUND_ROBIN"
**.deployer.numRbDl = 6
**.deployer.numRbUl = 6
**.numBands = 6


[Config TU-VID-VS-FULBUF-TU]
extends = Base
*.numUeD2DTx_FULBUF = ${n=4..10 step 2}
*.numUeD2DRx_FULBUF = ${n}
*.numUeD2DTx_vid = 3
*.numUeD2DRx_vid = 3
**.deployer.numRbDl = 6
**.deployer.numRbUl = 6
**.numBands = 6
**.schedulingDisciplineUl = "TU_GAME"
sim-time-limit=10s
repeat = 15
output-scalar-file = ${resultdir}/${configname}/n${n}_rep${repetition}.sca
*.ueD2DTx_vid[0].mobility.initialX = 310m 
*.ueD2DTx_vid[0].mobility.initialY = 300m
*.ueD2DRx_vid[0].mobility.initialX = 310m 
*.ueD2DRx_vid[0].mobility.initialY = 340m

*.ueD2DTx_vid[1].mobility.initialX = 320m 
*.ueD2DTx_vid[1].mobility.initialY = 300m
*.ueD2DRx_vid[1].mobility.initialX = 320m 
*.ueD2DRx_vid[1].mobility.initialY = 350m

*.ueD2DTx_vid[2].mobility.initialX = 330m 
*.ueD2DTx_vid[2].mobility.initialY = 300m
*.ueD2DRx_vid[2].mobility.initialX = 330m 
*.ueD2DRx_vid[2].mobility.initialY = 360m 

[Config TU-VID-VS-FULBUF-PF]
extends = TU-VID-VS-FULBUF-TU
**.schedulingDisciplineUl = "PROPFAIR"

[Config TU-VID-VS-FULBUF-RR]
extends = TU-VID-VS-FULBUF-TU
**.schedulingDisciplineUl = "NAIVE_ROUND_ROBIN"

[Config TU-VID-VS-FULBUF-STA]
extends = TU-VID-VS-FULBUF-TU
**.schedulingDisciplineUl = "MODDED_STACKELBERG_GAME"
*.oracle.d2dPenalty = 0.8


[Config vidtest]
extends = TU-VID-VS-FULBUF-TU
*.numUeD2DTx_FULBUF = 0
*.numUeD2DRx_FULBUF = 0
*.numUeD2DTx_vid = 1
*.numUeD2DRx_vid = 1
output-scalar-file = ${resultdir}/${configname}/rep${repetition}.sca


[Config stackelcompare_known]
extends = Base
sim-time-limit=10s
repeat = 15
**.vector-recording = false
*.numUeCellTx_FULBUF = 2
*.numUeCellRx_FULBUF = 2
*.numUeD2DTx_FULBUF = 2
*.numUeD2DRx_FULBUF = 2

*.eNodeB.mobility.initialX = 300m
*.eNodeB.mobility.initialY = 300m

*.ueD2DTx_FULBUF[0].mobility.initialX = 350m # far from leader1, close to leader2 
*.ueD2DTx_FULBUF[0].mobility.initialY = 309m 
*.ueD2DRx_FULBUF[0].mobility.initialX = 360m 
*.ueD2DRx_FULBUF[0].mobility.initialY = 309m

*.ueD2DTx_FULBUF[1].mobility.initialX = 250m # far from leader2, close to leader1
*.ueD2DTx_FULBUF[1].mobility.initialY = 309m
*.ueD2DRx_FULBUF[1].mobility.initialX = 240m 
*.ueD2DRx_FULBUF[1].mobility.initialY = 309m

*.ueCellTx_FULBUF[0].mobility.initialX = 240m # far from pair1, close to pair2 
*.ueCellTx_FULBUF[0].mobility.initialY = 310m
*.ueCellRx_FULBUF[0].mobility.initialX = 250m 
*.ueCellRx_FULBUF[0].mobility.initialY = 310m

*.ueCellTx_FULBUF[1].mobility.initialX = 360m # far from pair2, close to pair1 
*.ueCellTx_FULBUF[1].mobility.initialY = 310m
*.ueCellRx_FULBUF[1].mobility.initialX = 350m 
*.ueCellRx_FULBUF[1].mobility.initialY = 310m

**.oracle.stackelberg_scheduleFollowers = "STA"
**.schedulingDisciplineUl = "STACKELBERG_GAME"

[Config stackecompare_known_tx]
extends = stackelcompare_known
**.oracle.stackelberg_setTxPower = true

[Config stackelcompare_known_random]
extends = stackelcompare_known
**.oracle.stackelberg_scheduleFollowers = "RAND"


[Config interferenceTesterNew]
extends=Base

*.numUeD2DTx_FULBUF = 10
*.numUeD2DRx_FULBUF = 10
**.deployer.numRbDl = 5
**.deployer.numRbUl = 5
**.numBands = 5
**.schedulingDisciplineUl = "REUSE_TESTER"
**.schedulingDisciplineDl = "REUSE_TESTER"

*.ueD2DTx_FULBUF[1].mobility.initialX = 310m
*.ueD2DTx_FULBUF[1].mobility.initialY = 300m
*.ueD2DRx_FULBUF[1].mobility.initialX = 310m
*.ueD2DRx_FULBUF[1].mobility.initialY = 310m

*.ueD2DTx_FULBUF[2].mobility.initialX = 320m
*.ueD2DTx_FULBUF[2].mobility.initialY = 300m
*.ueD2DRx_FULBUF[2].mobility.initialX = 320m
*.ueD2DRx_FULBUF[2].mobility.initialY = 310m

*.ueD2DTx_FULBUF[3].mobility.initialX = 330m
*.ueD2DTx_FULBUF[3].mobility.initialY = 300m
*.ueD2DRx_FULBUF[3].mobility.initialX = 330m
*.ueD2DRx_FULBUF[3].mobility.initialY = 310m

*.ueD2DTx_FULBUF[4].mobility.initialX = 340m
*.ueD2DTx_FULBUF[4].mobility.initialY = 300m
*.ueD2DRx_FULBUF[4].mobility.initialX = 340m
*.ueD2DRx_FULBUF[4].mobility.initialY = 310m

*.ueD2DTx_FULBUF[5].mobility.initialX = 310m
*.ueD2DTx_FULBUF[5].mobility.initialY = 315m
*.ueD2DRx_FULBUF[5].mobility.initialX = 310m
*.ueD2DRx_FULBUF[5].mobility.initialY = 325m

*.ueD2DTx_FULBUF[6].mobility.initialX = 320m
*.ueD2DTx_FULBUF[6].mobility.initialY = 315m
*.ueD2DRx_FULBUF[6].mobility.initialX = 320m
*.ueD2DRx_FULBUF[6].mobility.initialY = 325m

*.ueD2DTx_FULBUF[7].mobility.initialX = 330m
*.ueD2DTx_FULBUF[7].mobility.initialY = 315m
*.ueD2DRx_FULBUF[7].mobility.initialX = 330m
*.ueD2DRx_FULBUF[7].mobility.initialY = 325m

*.ueD2DTx_FULBUF[8].mobility.initialX = 340m
*.ueD2DTx_FULBUF[8].mobility.initialY = 315m
*.ueD2DRx_FULBUF[8].mobility.initialX = 340m
*.ueD2DRx_FULBUF[8].mobility.initialY = 325m

*.ueD2DTx_FULBUF[9].mobility.initialX = 350m
*.ueD2DTx_FULBUF[9].mobility.initialY = 315m
*.ueD2DRx_FULBUF[9].mobility.initialX = 350m
*.ueD2DRx_FULBUF[9].mobility.initialY = 325m

*.ueD2DTx_FULBUF[0].mobility.initialX = ${d=325..465 step 20}m 
*.ueD2DTx_FULBUF[0].mobility.initialY = 305m # 0m -> 150m away from the cluster
*.ueD2DRx_FULBUF[0].mobility.initialX = ${d}m # 12m from Tx
*.ueD2DRx_FULBUF[0].mobility.initialY = 317m
output-scalar-file = ${resultdir}/${configname}/d${d}-rep${repetition}.sca
repeat=20
sim-time-limit=0.1s


[Config testInCellInterferenceAnalytical]
extends=Base

*.numUeD2DTx_FULBUF = 2
*.numUeD2DRx_FULBUF = 2
**.deployer.numRbDl = 1
**.deployer.numRbUl = 1
**.numBands = 1
**.schedulingDisciplineUl = "REUSE_TESTER"
**.schedulingDisciplineDl = "REUSE_TESTER"

*.ueD2DTx_FULBUF[0].mobility.initialX = ${d=405..500 step 5}m
*.ueD2DTx_FULBUF[0].mobility.initialY = 400m
*.ueD2DRx_FULBUF[0].mobility.initialX = ${d}m
*.ueD2DRx_FULBUF[0].mobility.initialY = 430m

*.ueD2DTx_FULBUF[1].mobility.initialX = 400m
*.ueD2DTx_FULBUF[1].mobility.initialY = 400m
*.ueD2DRx_FULBUF[1].mobility.initialX = 400m
*.ueD2DRx_FULBUF[1].mobility.initialY = 430m

output-scalar-file = ${resultdir}/${configname}/d${d}-rep${repetition}.sca
repeat=20
sim-time-limit=5s


[Config testInCellInterferenceAddition]
extends=Base

**.lteNic.phy.channelModel=xmldoc("config_channel_fspl.xml")
**.feedbackComputation = xmldoc("config_channel_fspl.xml")

*.numUeD2DTx_FULBUF = ${numPairs=2..6 step 1}
*.numUeD2DRx_FULBUF = ${numPairs}
**.deployer.numRbDl = 1
**.deployer.numRbUl = 1
**.numBands = 1
**.schedulingDisciplineUl = "REUSE_TESTER"
**.schedulingDisciplineDl = "REUSE_TESTER"

*.ueD2DTx_FULBUF[0].mobility.initialX = 400m
*.ueD2DTx_FULBUF[0].mobility.initialY = 400m
*.ueD2DRx_FULBUF[0].mobility.initialX = 400m
*.ueD2DRx_FULBUF[0].mobility.initialY = 405m


*.ueD2DTx_FULBUF[1].mobility.initialX = 406.18m
*.ueD2DTx_FULBUF[1].mobility.initialY = 419.021m
*.ueD2DRx_FULBUF[1].mobility.initialX = 406.18m
*.ueD2DRx_FULBUF[1].mobility.initialY = 424.021m

*.ueD2DTx_FULBUF[2].mobility.initialX = 383.82m
*.ueD2DTx_FULBUF[2].mobility.initialY = 411.756m
*.ueD2DRx_FULBUF[2].mobility.initialX = 383.82m
*.ueD2DRx_FULBUF[2].mobility.initialY = 416.756m

*.ueD2DTx_FULBUF[3].mobility.initialX = 383.82m
*.ueD2DTx_FULBUF[3].mobility.initialY = 388.244m
*.ueD2DRx_FULBUF[3].mobility.initialX = 383.82m
*.ueD2DRx_FULBUF[3].mobility.initialY = 393.244m

*.ueD2DTx_FULBUF[4].mobility.initialX = 406.18m
*.ueD2DTx_FULBUF[4].mobility.initialY = 380.979m
*.ueD2DRx_FULBUF[4].mobility.initialX = 406.18m
*.ueD2DRx_FULBUF[4].mobility.initialY = 385.979m

*.ueD2DTx_FULBUF[5].mobility.initialX = 420m
*.ueD2DTx_FULBUF[5].mobility.initialY = 400m
*.ueD2DRx_FULBUF[5].mobility.initialX = 420m
*.ueD2DRx_FULBUF[5].mobility.initialY = 405m

output-scalar-file = ${resultdir}/${configname}/n${numPairs}-rep${repetition}.sca
repeat=20
sim-time-limit=1s

[Config testInCellInterferenceAdditionUrbanMacro]
extends=testInCellInterferenceAddition

**.lteNic.phy.channelModel=xmldoc("config_channel_urban_macro.xml")
**.feedbackComputation = xmldoc("config_channel_urban_macro.xml")


[Config lre]
extends = paper_voip_sta
network = FrequencyNetworkLRE
**.lre.type = "CCDF"
**.lre.xmin = 0.004
**.lre.xmax = 0.006
**.lre.bin_size = 0.0001
**.lre.signal_name = "voIPFrameDelay"
sim-time-limit = 100000s

[Config lre-rr]
extends = lre
**.schedulingDisciplineUl = "NAIVE_ROUND_ROBIN"
**.lre.xmin = 0.004
**.lre.xmax = 0.024
**.lre.bin_size = 0.004
**.lre.progress_interval = 300

[Config lre-long-run]
extends = lre
**.lre.xmin = 0.004
**.lre.xmax = 0.01
**.lre.bin_size = 0.00025
**.lre.max_error = ${e=0.15, 0.1, 0.05, 0.025}
**.lre.output_file = "lre_output_e" + string(${e}) + ".txt"
**.lre.progress_report_to_file = true
**.lre.progress_interval = 100
**.lre.progress_file = "lre_progress_e" + string(${e}) + ".txt"
repeat = 1

[Config lre-long-run-rare]
extends = lre
**.lre.xmin = 0.2
**.lre.xmax = 0.23
**.lre.bin_size = 0.01
**.lre.max_error = ${e=0.15, 0.1, 0.05, 0.025}
**.lre.progress_report_to_file = true
**.lre.progress_interval = 100
**.lre.output_file = "lre_output_rare_e" + string(${e}) + ".txt"
**.lre.progress_file = "lre_progress_rare_e" + string(${e}) + ".txt"
repeat = 1